<?xml version="1.0" encoding="UTF-8"?>

<!-- generated on Thu 25 Feb 2021 07:53:54 AM +08 by Eclipse SUMO netedit Version v1_1_0+0000-2147d155b1
<configuration xmlns:xsi="http://www.w3.org/2001/XMLSchema-instance" xsi:noNamespaceSchemaLocation="http://sumo.dlr.de/xsd/netconvertConfiguration.xsd">

    <input>
        <sumo-net-file value="/home/ubuntu/flow/playground/Simulation_Area/network_sa.net.xml"/>
    </input>

    <output>
        <output-file value="/home/ubuntu/flow/playground/Simulation_Area/network_sa.net.xml"/>
        <output.street-names value="true"/>
    </output>

    <processing>
        <geometry.max-grade.fix value="false"/>
        <offset.disable-normalization value="true"/>
        <lefthand value="false"/>
    </processing>

    <junctions>
        <no-turnarounds value="true"/>
        <junctions.corner-detail value="5"/>
        <junctions.limit-turn-speed value="5.5"/>
        <rectangular-lane-cut value="false"/>
    </junctions>

    <pedestrian>
        <walkingareas value="false"/>
    </pedestrian>

    <visualisation>
        <registry-viewport value="true"/>
    </visualisation>

</configuration>
-->

<net version="1.1" junctionCornerDetail="5" limitTurnSpeed="5.50" xmlns:xsi="http://www.w3.org/2001/XMLSchema-instance" xsi:noNamespaceSchemaLocation="http://sumo.dlr.de/xsd/net_file.xsd">

    <location netOffset="-642069.14,-588579.28" convBoundary="153.47,0.00,2773.77,7025.46" origBoundary="100.282167,5.323243,100.310646,5.387069" projParameter="+proj=utm +zone=47 +ellps=WGS84 +datum=WGS84 +units=m +no_defs"/>

    <type id="highway.bridleway" priority="1" numLanes="1" speed="2.78" allow="pedestrian" oneway="1" width="2.00"/>
    <type id="highway.bus_guideway" priority="1" numLanes="1" speed="27.78" allow="bus" oneway="1"/>
    <type id="highway.cycleway" priority="1" numLanes="1" speed="8.33" allow="bicycle" oneway="1" width="1.00"/>
    <type id="highway.footway" priority="1" numLanes="1" speed="2.78" allow="pedestrian" oneway="1" width="2.00"/>
    <type id="highway.ford" priority="1" numLanes="1" speed="2.78" allow="army" oneway="1"/>
    <type id="highway.living_street" priority="3" numLanes="1" speed="2.78" disallow="tram rail_urban rail rail_electric ship" oneway="1"/>
    <type id="highway.motorway" priority="13" numLanes="2" speed="44.44" allow="private emergency authority army vip passenger hov taxi bus coach delivery truck trailer motorcycle evehicle custom1 custom2" oneway="1"/>
    <type id="highway.motorway_link" priority="12" numLanes="1" speed="22.22" allow="private emergency authority army vip passenger hov taxi bus coach delivery truck trailer motorcycle evehicle custom1 custom2" oneway="1"/>
    <type id="highway.path" priority="1" numLanes="1" speed="2.78" allow="bicycle pedestrian" oneway="1" width="2.00"/>
    <type id="highway.pedestrian" priority="1" numLanes="1" speed="2.78" allow="pedestrian" oneway="1" width="2.00"/>
    <type id="highway.primary" priority="9" numLanes="2" speed="27.78" disallow="tram rail_urban rail rail_electric ship" oneway="1"/>
    <type id="highway.primary_link" priority="8" numLanes="1" speed="22.22" disallow="tram rail_urban rail rail_electric ship" oneway="1"/>
    <type id="highway.raceway" priority="14" numLanes="2" speed="83.33" allow="vip" oneway="1"/>
    <type id="highway.residential" priority="4" numLanes="1" speed="13.89" disallow="tram rail_urban rail rail_electric ship" oneway="1"/>
    <type id="highway.secondary" priority="7" numLanes="2" speed="27.78" disallow="tram rail_urban rail rail_electric ship" oneway="1"/>
    <type id="highway.secondary_link" priority="6" numLanes="1" speed="22.22" disallow="tram rail_urban rail rail_electric ship" oneway="1"/>
    <type id="highway.service" priority="2" numLanes="1" speed="5.56" allow="delivery bicycle pedestrian" oneway="1"/>
    <type id="highway.stairs" priority="1" numLanes="1" speed="1.39" allow="pedestrian" oneway="1" width="2.00"/>
    <type id="highway.step" priority="1" numLanes="1" speed="1.39" allow="pedestrian" oneway="1" width="2.00"/>
    <type id="highway.steps" priority="1" numLanes="1" speed="1.39" allow="pedestrian" oneway="1" width="2.00"/>
    <type id="highway.tertiary" priority="6" numLanes="1" speed="22.22" disallow="tram rail_urban rail rail_electric ship" oneway="1"/>
    <type id="highway.tertiary_link" priority="5" numLanes="1" speed="22.22" disallow="tram rail_urban rail rail_electric ship" oneway="1"/>
    <type id="highway.track" priority="1" numLanes="1" speed="5.56" disallow="tram rail_urban rail rail_electric ship" oneway="1"/>
    <type id="highway.trunk" priority="11" numLanes="2" speed="27.78" disallow="tram rail_urban rail rail_electric bicycle pedestrian ship" oneway="1"/>
    <type id="highway.trunk_link" priority="10" numLanes="1" speed="22.22" disallow="tram rail_urban rail rail_electric bicycle pedestrian ship" oneway="1"/>
    <type id="highway.unclassified" priority="5" numLanes="1" speed="13.89" disallow="tram rail_urban rail rail_electric ship" oneway="1"/>
    <type id="highway.unsurfaced" priority="1" numLanes="1" speed="8.33" disallow="tram rail_urban rail rail_electric ship" oneway="1"/>
    <type id="railway.light_rail" priority="15" numLanes="1" speed="27.78" allow="rail_urban" oneway="1"/>
    <type id="railway.preserved" priority="15" numLanes="1" speed="27.78" allow="rail" oneway="1"/>
    <type id="railway.rail" priority="15" numLanes="1" speed="83.33" allow="rail rail_electric" oneway="1"/>
    <type id="railway.subway" priority="15" numLanes="1" speed="27.78" allow="rail_urban" oneway="1"/>
    <type id="railway.tram" priority="15" numLanes="1" speed="13.89" allow="tram" oneway="1"/>

    <edge id=":1314547394_0" function="internal">
        <lane id=":1314547394_0_0" index="0" disallow="tram rail_urban rail rail_electric ship" speed="13.89" length="5.25" shape="982.16,1464.42 978.58,1463.20 977.34,1462.42"/>
    </edge>
    <edge id=":1314547394_1" function="internal">
        <lane id=":1314547394_1_0" index="0" disallow="tram rail_urban rail rail_electric ship" speed="4.36" length="4.12" shape="982.16,1464.42 980.24,1463.72 979.43,1462.75 979.61,1461.96"/>
    </edge>
    <edge id=":1314547394_6" function="internal">
        <lane id=":1314547394_6_0" index="0" disallow="tram rail_urban rail rail_electric ship" speed="13.89" length="10.57" shape="977.34,1462.42 975.18,1461.05 971.88,1458.62 968.59,1456.51"/>
    </edge>
    <edge id=":1314547394_7" function="internal">
        <lane id=":1314547394_7_0" index="0" disallow="tram rail_urban rail rail_electric ship" speed="4.36" length="2.49" shape="979.61,1461.96 979.71,1461.52 981.10,1460.02"/>
    </edge>
    <edge id=":1314547394_2" function="internal">
        <lane id=":1314547394_2_0" index="0" disallow="tram rail_urban rail rail_electric ship" speed="8.00" length="18.05" shape="971.77,1455.43 970.04,1459.62 970.76,1463.04 973.92,1465.68 979.52,1467.55"/>
    </edge>
    <edge id=":1314547394_3" function="internal">
        <lane id=":1314547394_3_0" index="0" disallow="tram rail_urban rail rail_electric ship" speed="5.15" length="4.90" shape="971.77,1455.43 971.38,1456.89 970.72,1457.56 969.79,1457.43 968.59,1456.51"/>
    </edge>
    <edge id=":1314547394_4" function="internal">
        <lane id=":1314547394_4_0" index="0" disallow="tram rail_urban rail rail_electric ship" speed="12.55" length="16.35" shape="965.10,1460.10 967.65,1461.16 971.16,1461.51 975.64,1461.13 981.10,1460.02"/>
    </edge>
    <edge id=":1314547394_5" function="internal">
        <lane id=":1314547394_5_0" index="0" disallow="tram rail_urban rail rail_electric ship" speed="13.89" length="16.32" shape="965.10,1460.10 968.40,1462.31 972.02,1464.49 975.78,1466.34 979.52,1467.55"/>
    </edge>
    <edge id=":1314547406_0" function="internal">
        <lane id=":1314547406_0_0" index="0" disallow="tram rail_urban rail rail_electric ship" speed="27.78" length="2.48" shape="749.71,1199.78 751.07,1197.35"/>
        <lane id=":1314547406_0_1" index="1" disallow="tram rail_urban rail rail_electric ship" speed="27.78" length="2.48" shape="752.75,1198.77 751.07,1197.35"/>
        <lane id=":1314547406_0_2" index="2" disallow="tram rail_urban rail rail_electric ship" speed="27.78" length="2.48" shape="755.79,1197.77 754.03,1196.06"/>
    </edge>
    <edge id=":1314547610_0" function="internal">
        <lane id=":1314547610_0_0" index="0" disallow="tram rail_urban rail rail_electric ship" speed="22.22" length="0.27" shape="1265.91,1381.53 1265.90,1381.66"/>
        <lane id=":1314547610_0_1" index="1" disallow="tram rail_urban rail rail_electric ship" speed="22.22" length="0.27" shape="1262.76,1380.96 1262.71,1381.37"/>
    </edge>
    <edge id=":1314547610_2" function="internal">
        <lane id=":1314547610_2_0" index="0" disallow="tram rail_urban rail rail_electric ship" speed="22.22" length="0.81" shape="1256.34,1380.78 1256.46,1379.84"/>
        <lane id=":1314547610_2_1" index="1" disallow="tram rail_urban rail rail_electric ship" speed="22.22" length="0.81" shape="1259.52,1381.07 1259.61,1380.40"/>
    </edge>
    <edge id=":1314547660_0" function="internal">
        <lane id=":1314547660_0_0" index="0" disallow="tram rail_urban rail rail_electric ship" speed="22.92" length="9.24" shape="995.48,1433.20 987.51,1428.76"/>
        <lane id=":1314547660_0_1" index="1" disallow="tram rail_urban rail rail_electric ship" speed="22.92" length="9.24" shape="997.08,1430.43 989.01,1425.93"/>
        <lane id=":1314547660_0_2" index="2" disallow="tram rail_urban rail rail_electric ship" speed="22.92" length="9.24" shape="998.69,1427.66 990.52,1423.11"/>
    </edge>
    <edge id=":1314547669_0" function="internal">
        <lane id=":1314547669_0_0" index="0" disallow="tram rail_urban rail rail_electric ship" speed="22.22" length="0.27" shape="877.10,1015.44 877.29,1015.42"/>
        <lane id=":1314547669_0_1" index="1" disallow="tram rail_urban rail rail_electric ship" speed="22.22" length="0.27" shape="877.51,1018.62 877.77,1018.58"/>
        <lane id=":1314547669_0_2" index="2" disallow="tram rail_urban rail rail_electric ship" speed="22.22" length="0.27" shape="877.91,1021.79 878.26,1021.74"/>
    </edge>
    <edge id=":1314547687_0" function="internal">
        <lane id=":1314547687_0_0" index="0" disallow="tram rail_urban rail rail_electric ship" speed="27.78" length="9.54" shape="748.15,1186.48 747.42,1183.76 746.56,1181.99 745.71,1180.22 745.01,1177.49"/>
        <lane id=":1314547687_0_1" index="1" disallow="tram rail_urban rail rail_electric ship" speed="27.78" length="9.54" shape="751.31,1185.92 750.58,1183.21 749.72,1181.45 748.86,1179.69 748.16,1176.97"/>
        <lane id=":1314547687_0_2" index="2" disallow="tram rail_urban rail rail_electric ship" speed="27.78" length="9.54" shape="751.31,1185.92 751.07,1183.14 751.29,1181.19 751.53,1179.25 751.32,1176.46"/>
    </edge>
    <edge id=":1720251456_0" function="internal">
        <lane id=":1720251456_0_0" index="0" disallow="tram rail_urban rail rail_electric ship" speed="27.78" length="4.70" shape="1828.41,5535.42 1825.84,5531.86"/>
        <lane id=":1720251456_0_1" index="1" disallow="tram rail_urban rail rail_electric ship" speed="27.78" length="4.70" shape="1831.00,5533.53 1828.44,5529.98"/>
        <lane id=":1720251456_0_2" index="2" disallow="tram rail_urban rail rail_electric ship" speed="27.78" length="4.70" shape="1833.58,5531.64 1831.03,5528.10"/>
        <lane id=":1720251456_0_3" index="3" disallow="tram rail_urban rail rail_electric ship" speed="27.78" length="4.70" shape="1836.16,5529.75 1834.91,5528.88 1833.59,5528.93 1832.27,5528.97 1831.03,5528.10"/>
    </edge>
    <edge id=":1724472121_0" function="internal">
        <lane id=":1724472121_0_0" index="0" disallow="tram rail_urban rail rail_electric ship" speed="18.06" length="6.31" shape="1078.50,2614.46 1079.31,2612.81 1080.21,2611.85 1081.10,2610.89 1081.91,2609.24"/>
        <lane id=":1724472121_0_1" index="1" disallow="tram rail_urban rail rail_electric ship" speed="18.06" length="6.31" shape="1081.54,2615.47 1082.35,2613.82 1083.25,2612.85 1084.14,2611.89 1084.95,2610.24"/>
        <lane id=":1724472121_0_2" index="2" disallow="tram rail_urban rail rail_electric ship" speed="18.06" length="6.31" shape="1084.58,2616.47 1084.92,2614.67 1084.77,2613.36 1084.62,2612.05 1084.95,2610.24"/>
    </edge>
    <edge id=":1732686573_0" function="internal">
        <lane id=":1732686573_0_0" index="0" disallow="tram rail_urban rail rail_electric ship" speed="13.89" length="20.63" shape="2171.43,5596.02 2167.06,5597.46 2161.51,5598.72 2155.92,5599.85 2151.41,5600.91"/>
    </edge>
    <edge id=":1732686573_1" function="internal">
        <lane id=":1732686573_1_0" index="0" disallow="tram rail_urban rail rail_electric ship" speed="13.89" length="15.97" shape="2158.25,5603.63 2161.47,5601.62 2164.25,5598.57 2167.00,5595.41 2170.10,5593.11"/>
    </edge>
    <edge id=":1732688104_0" function="internal">
        <lane id=":1732688104_0_0" index="0" disallow="tram rail_urban rail rail_electric ship" speed="7.47" length="2.64" shape="1833.58,5661.46 1832.90,5661.84 1832.40,5662.03 1831.86,5662.10 1831.08,5662.10"/>
    </edge>
    <edge id=":1732688104_1" function="internal">
        <lane id=":1732688104_1_0" index="0" allow="delivery bicycle pedestrian" speed="9.72" length="0.88" shape="1831.15,5658.90 1831.41,5658.90 1831.59,5658.88 1831.76,5658.81 1831.98,5658.69"/>
    </edge>
    <edge id=":1732688312_0" function="internal">
        <lane id=":1732688312_0_0" index="0" disallow="tram rail_urban rail rail_electric ship" speed="13.89" length="14.43" shape="1751.68,5636.00 1737.98,5631.49"/>
    </edge>
    <edge id=":1732688312_1" function="internal">
        <lane id=":1732688312_1_0" index="0" disallow="tram rail_urban rail rail_electric ship" speed="7.96" length="5.97" shape="1751.68,5636.00 1748.17,5634.27 1746.83,5632.72"/>
    </edge>
    <edge id=":1732688312_6" function="internal">
        <lane id=":1732688312_6_0" index="0" disallow="tram rail_urban rail rail_electric ship" speed="7.96" length="8.31" shape="1746.83,5632.72 1746.07,5631.83 1745.40,5628.69 1746.15,5624.84"/>
    </edge>
    <edge id=":1732688312_2" function="internal">
        <lane id=":1732688312_2_0" index="0" disallow="tram rail_urban rail rail_electric ship" speed="6.46" length="9.03" shape="1749.17,5625.89 1748.70,5628.33 1749.12,5630.32 1750.45,5631.86 1752.68,5632.96"/>
    </edge>
    <edge id=":1732688312_3" function="internal">
        <lane id=":1732688312_3_0" index="0" disallow="tram rail_urban rail rail_electric ship" speed="8.05" length="14.23" shape="1749.17,5625.89 1747.38,5629.38 1744.92,5631.47 1741.78,5632.17 1737.98,5631.49"/>
    </edge>
    <edge id=":1732688312_4" function="internal">
        <lane id=":1732688312_4_0" index="0" disallow="tram rail_urban rail rail_electric ship" speed="6.57" length="9.12" shape="1738.99,5628.45 1741.42,5628.89 1743.42,5628.43 1745.00,5627.08 1746.15,5624.84"/>
    </edge>
    <edge id=":1732688312_5" function="internal">
        <lane id=":1732688312_5_0" index="0" disallow="tram rail_urban rail rail_electric ship" speed="13.89" length="14.41" shape="1738.99,5628.45 1752.68,5632.96"/>
    </edge>
    <edge id=":1732688463_0" function="internal">
        <lane id=":1732688463_0_0" index="0" disallow="tram rail_urban rail rail_electric ship" speed="6.27" length="9.04" shape="1565.22,5587.22 1562.70,5587.23 1560.88,5588.07 1559.76,5589.73 1559.34,5592.21"/>
    </edge>
    <edge id=":1732688463_1" function="internal">
        <lane id=":1732688463_1_0" index="0" disallow="tram rail_urban rail rail_electric ship" speed="13.89" length="14.73" shape="1565.22,5587.22 1561.59,5586.47 1558.07,5585.45 1554.54,5584.44 1550.91,5583.74"/>
    </edge>
    <edge id=":1732688463_2" function="internal">
        <lane id=":1732688463_2_0" index="0" disallow="tram rail_urban rail rail_electric ship" speed="7.36" length="10.98" shape="1556.14,5592.14 1555.88,5588.71 1554.93,5586.17 1553.27,5584.51 1550.91,5583.74"/>
    </edge>
    <edge id=":1732688463_3" function="internal">
        <lane id=":1732688463_3_0" index="0" disallow="tram rail_urban rail rail_electric ship" speed="7.81" length="14.64" shape="1556.14,5592.14 1556.82,5588.12 1558.63,5585.43 1561.58,5584.07 1565.66,5584.05"/>
    </edge>
    <edge id=":1732688464_0" function="internal">
        <lane id=":1732688464_0_0" index="0" disallow="tram rail_urban rail rail_electric ship" speed="13.89" length="6.20" shape="1568.36,5524.42 1562.21,5523.70"/>
    </edge>
    <edge id=":1732688464_1" function="internal">
        <lane id=":1732688464_1_0" index="0" disallow="tram rail_urban rail rail_electric ship" speed="13.89" length="6.19" shape="1562.59,5520.52 1568.73,5521.25"/>
    </edge>
    <edge id=":1732688464_2" function="internal">
        <lane id=":1732688464_2_0" index="0" disallow="tram rail_urban rail rail_electric ship" speed="5.08" length="5.02" shape="1564.94,5527.17 1564.89,5525.79 1564.42,5524.75 1563.52,5524.05 1562.21,5523.70"/>
    </edge>
    <edge id=":1732688464_3" function="internal">
        <lane id=":1732688464_3_0" index="0" disallow="tram rail_urban rail rail_electric ship" speed="6.07" length="7.80" shape="1564.94,5527.17 1565.42,5524.44 1566.21,5522.54 1567.31,5521.48 1568.73,5521.25"/>
    </edge>
    <edge id=":1736778754_0" function="internal">
        <lane id=":1736778754_0_0" index="0" allow="delivery bicycle pedestrian" speed="4.18" length="0.84" shape="1136.39,1791.10 1135.55,1791.03"/>
    </edge>
    <edge id=":1736778754_3" function="internal">
        <lane id=":1736778754_3_0" index="0" allow="delivery bicycle pedestrian" speed="4.18" length="2.38" shape="1135.55,1791.03 1135.32,1791.02 1134.56,1790.73 1134.12,1790.26 1133.99,1789.58"/>
    </edge>
    <edge id=":1736778754_1" function="internal">
        <lane id=":1736778754_1_0" index="0" allow="delivery bicycle pedestrian" speed="5.56" length="6.20" shape="1133.83,1795.77 1133.99,1789.58"/>
    </edge>
    <edge id=":1736778754_2" function="internal">
        <lane id=":1736778754_2_0" index="0" allow="delivery bicycle pedestrian" speed="4.13" length="2.96" shape="1133.83,1795.77 1133.98,1795.15 1134.40,1794.71 1135.09,1794.45 1136.06,1794.36"/>
    </edge>
    <edge id=":1736778808_0" function="internal">
        <lane id=":1736778808_0_0" index="0" allow="delivery bicycle pedestrian" speed="3.90" length="2.74" shape="1130.53,1877.33 1131.29,1877.30 1131.84,1877.03 1132.17,1876.52 1132.29,1875.77"/>
    </edge>
    <edge id=":1736779384_0" function="internal">
        <lane id=":1736779384_0_0" index="0" disallow="tram rail_urban rail rail_electric ship" speed="13.89" length="0.18" shape="1129.91,2614.30 1129.73,2614.30"/>
    </edge>
    <edge id=":1736779384_1" function="internal">
        <lane id=":1736779384_1_0" index="0" disallow="tram rail_urban rail rail_electric ship" speed="13.89" length="0.29" shape="1129.53,2611.11 1129.83,2611.10"/>
    </edge>
    <edge id=":1736779684_0" function="internal">
        <lane id=":1736779684_0_0" index="0" allow="delivery bicycle pedestrian" speed="8.00" length="13.08" shape="1088.69,3309.88 1087.39,3306.52 1085.37,3304.26 1082.63,3303.10 1079.16,3303.05"/>
    </edge>
    <edge id=":1736779684_1" function="internal">
        <lane id=":1736779684_1_0" index="0" disallow="tram rail_urban rail rail_electric ship" speed="13.89" length="5.81" shape="1088.69,3309.88 1088.14,3306.10 1088.07,3304.11"/>
    </edge>
    <edge id=":1736779684_2" function="internal">
        <lane id=":1736779684_2_0" index="0" allow="delivery bicycle pedestrian" speed="7.47" length="6.45" shape="1088.69,3309.88 1088.95,3307.83 1090.82,3306.18 1092.60,3305.55"/>
    </edge>
    <edge id=":1736779684_9" function="internal">
        <lane id=":1736779684_9_0" index="0" disallow="tram rail_urban rail rail_electric ship" speed="13.89" length="9.73" shape="1088.07,3304.11 1088.00,3302.16 1087.87,3298.21 1087.37,3294.42"/>
    </edge>
    <edge id=":1736779684_10" function="internal">
        <lane id=":1736779684_10_0" index="0" allow="delivery bicycle pedestrian" speed="7.47" length="6.96" shape="1092.60,3305.55 1094.30,3304.94 1099.38,3304.10"/>
    </edge>
    <edge id=":1736779684_3" function="internal">
        <lane id=":1736779684_3_0" index="0" allow="delivery bicycle pedestrian" speed="5.56" length="17.50" shape="1096.38,3300.37 1092.31,3300.32 1087.78,3301.13 1083.25,3302.23 1079.16,3303.05"/>
    </edge>
    <edge id=":1736779684_4" function="internal">
        <lane id=":1736779684_4_0" index="0" disallow="tram rail_urban rail rail_electric ship" speed="9.72" length="15.77" shape="1096.38,3300.37 1091.89,3302.26 1088.90,3301.90 1087.39,3299.28 1087.37,3294.42"/>
    </edge>
    <edge id=":1736779684_5" function="internal">
        <lane id=":1736779684_5_0" index="0" allow="delivery bicycle pedestrian" speed="9.46" length="18.48" shape="1084.42,3296.65 1086.11,3300.44 1089.17,3302.94 1093.59,3304.16 1099.38,3304.10"/>
    </edge>
    <edge id=":1736779684_6" function="internal">
        <lane id=":1736779684_6_0" index="0" allow="delivery bicycle pedestrian" speed="7.20" length="5.93" shape="1084.42,3296.65 1085.51,3300.23 1085.02,3302.37"/>
    </edge>
    <edge id=":1736779684_11" function="internal">
        <lane id=":1736779684_11_0" index="0" allow="delivery bicycle pedestrian" speed="7.20" length="6.17" shape="1085.02,3302.37 1084.99,3302.48 1082.88,3303.43 1079.16,3303.05"/>
    </edge>
    <edge id=":1736779684_7" function="internal">
        <lane id=":1736779684_7_0" index="0" disallow="tram rail_urban rail rail_electric ship" speed="8.48" length="17.12" shape="1078.80,3306.37 1083.43,3305.08 1086.40,3302.65 1087.71,3299.10 1087.37,3294.42"/>
    </edge>
    <edge id=":1736779684_8" function="internal">
        <lane id=":1736779684_8_0" index="0" allow="delivery bicycle pedestrian" speed="5.56" length="20.70" shape="1078.80,3306.37 1099.38,3304.10"/>
    </edge>
    <edge id=":1736779717_0" function="internal">
        <lane id=":1736779717_0_0" index="0" disallow="tram rail_urban rail rail_electric ship" speed="1.39" length="4.98" shape="1144.20,3508.29 1144.05,3506.55 1143.66,3505.30 1143.01,3504.55 1142.11,3504.29"/>
    </edge>
    <edge id=":1736779717_1" function="internal">
        <lane id=":1736779717_1_0" index="0" disallow="tram rail_urban rail rail_electric ship" speed="4.13" length="3.12" shape="1144.20,3508.29 1144.33,3507.53 1144.73,3507.01 1145.41,3506.71 1146.36,3506.63"/>
    </edge>
    <edge id=":1736779717_2" function="internal">
        <lane id=":1736779717_2_0" index="0" disallow="tram rail_urban rail rail_electric ship" speed="7.64" length="2.63" shape="1144.71,3504.13 1143.96,3504.34 1143.43,3504.38 1142.89,3504.33 1142.11,3504.29"/>
    </edge>
    <edge id=":1736779718_0" function="internal">
        <lane id=":1736779718_0_0" index="0" disallow="tram rail_urban rail rail_electric ship" speed="5.90" length="8.54" shape="1153.88,3508.99 1153.39,3505.67 1152.63,3503.44 1151.61,3502.30 1150.31,3502.24"/>
    </edge>
    <edge id=":1736779718_1" function="internal">
        <lane id=":1736779718_1_0" index="0" disallow="tram rail_urban rail rail_electric ship" speed="12.47" length="12.62" shape="1153.88,3508.99 1153.52,3505.57 1152.91,3502.66 1151.70,3500.04 1149.56,3497.50"/>
    </edge>
    <edge id=":1736779718_2" function="internal">
        <lane id=":1736779718_2_0" index="0" disallow="tram rail_urban rail rail_electric ship" speed="4.43" length="3.83" shape="1153.88,3508.99 1154.00,3508.26 1154.54,3507.73 1155.47,3507.41 1156.82,3507.29"/>
    </edge>
    <edge id=":1736779718_3" function="internal">
        <lane id=":1736779718_3_0" index="0" disallow="tram rail_urban rail rail_electric ship" speed="13.89" length="7.10" shape="1156.89,3504.13 1154.88,3503.74 1153.53,3502.83 1152.23,3502.09 1150.31,3502.24"/>
    </edge>
    <edge id=":1736779718_4" function="internal">
        <lane id=":1736779718_4_0" index="0" disallow="tram rail_urban rail rail_electric ship" speed="9.35" length="2.10" shape="1156.71,3500.94 1155.00,3500.78 1154.65,3500.65"/>
    </edge>
    <edge id=":1736779718_7" function="internal">
        <lane id=":1736779718_7_0" index="0" disallow="tram rail_urban rail rail_electric ship" speed="9.35" length="6.05" shape="1154.65,3500.65 1153.23,3500.15 1151.42,3499.05 1149.56,3497.50"/>
    </edge>
    <edge id=":1736779718_5" function="internal">
        <lane id=":1736779718_5_0" index="0" disallow="tram rail_urban rail rail_electric ship" speed="6.39" length="14.28" shape="1150.63,3506.78 1153.95,3506.32 1154.88,3504.62 1153.42,3501.68 1149.56,3497.50"/>
    </edge>
    <edge id=":1736779718_6" function="internal">
        <lane id=":1736779718_6_0" index="0" disallow="tram rail_urban rail rail_electric ship" speed="13.89" length="6.21" shape="1150.63,3506.78 1156.82,3507.29"/>
    </edge>
    <edge id=":1736779745_0" function="internal">
        <lane id=":1736779745_0_0" index="0" disallow="tram rail_urban rail rail_electric ship" speed="13.89" length="0.10" shape="1165.03,3654.98 1165.03,3654.98"/>
    </edge>
    <edge id=":1736779772_0" function="internal">
        <lane id=":1736779772_0_0" index="0" disallow="tram rail_urban rail rail_electric ship" speed="13.89" length="12.16" shape="1168.44,3762.40 1166.44,3759.78 1164.42,3757.90 1162.08,3756.40 1159.11,3754.90"/>
    </edge>
    <edge id=":1736779772_1" function="internal">
        <lane id=":1736779772_1_0" index="0" disallow="tram rail_urban rail rail_electric ship" speed="13.89" length="14.09" shape="1168.44,3762.40 1166.96,3759.21 1166.42,3755.86 1166.38,3752.35 1166.42,3748.68"/>
    </edge>
    <edge id=":1736779772_2" function="internal">
        <lane id=":1736779772_2_0" index="0" disallow="tram rail_urban rail rail_electric ship" speed="6.21" length="11.32" shape="1168.44,3762.40 1167.44,3759.96 1168.11,3758.11 1170.45,3756.85 1174.45,3756.18"/>
    </edge>
    <edge id=":1736779772_3" function="internal">
        <lane id=":1736779772_3_0" index="0" disallow="tram rail_urban rail rail_electric ship" speed="8.51" length="15.78" shape="1174.28,3751.61 1170.31,3752.62 1167.57,3754.80 1166.05,3758.14 1165.75,3762.64"/>
    </edge>
    <edge id=":1736779772_4" function="internal">
        <lane id=":1736779772_4_0" index="0" disallow="tram rail_urban rail rail_electric ship" speed="13.89" length="8.32" shape="1174.28,3751.61 1170.44,3752.62 1166.52,3754.24 1166.41,3754.27"/>
    </edge>
    <edge id=":1736779772_5" function="internal">
        <lane id=":1736779772_5_0" index="0" disallow="tram rail_urban rail rail_electric ship" speed="6.43" length="6.71" shape="1174.28,3751.61 1170.86,3751.70 1168.41,3751.24 1167.75,3750.79"/>
    </edge>
    <edge id=":1736779772_9" function="internal">
        <lane id=":1736779772_9_0" index="0" disallow="tram rail_urban rail rail_electric ship" speed="13.89" length="7.48" shape="1166.41,3754.27 1162.68,3755.36 1159.11,3754.90"/>
    </edge>
    <edge id=":1736779772_10" function="internal">
        <lane id=":1736779772_10_0" index="0" disallow="tram rail_urban rail rail_electric ship" speed="6.43" length="2.62" shape="1167.75,3750.79 1166.93,3750.23 1166.42,3748.68"/>
    </edge>
    <edge id=":1736779772_6" function="internal">
        <lane id=":1736779772_6_0" index="0" disallow="tram rail_urban rail rail_electric ship" speed="8.49" length="12.11" shape="1159.42,3757.51 1162.52,3756.02 1164.72,3754.05 1166.02,3751.60 1166.42,3748.68"/>
    </edge>
    <edge id=":1736779772_7" function="internal">
        <lane id=":1736779772_7_0" index="0" disallow="tram rail_urban rail rail_electric ship" speed="13.89" length="15.15" shape="1159.42,3757.51 1163.06,3756.65 1166.84,3756.36 1170.66,3756.32 1174.45,3756.18"/>
    </edge>
    <edge id=":1736779772_8" function="internal">
        <lane id=":1736779772_8_0" index="0" disallow="tram rail_urban rail rail_electric ship" speed="6.25" length="5.55" shape="1159.42,3757.51 1162.02,3757.05 1163.95,3757.75 1164.42,3758.47"/>
    </edge>
    <edge id=":1736779772_11" function="internal">
        <lane id=":1736779772_11_0" index="0" disallow="tram rail_urban rail rail_electric ship" speed="6.25" length="4.46" shape="1164.42,3758.47 1165.19,3759.61 1165.75,3762.64"/>
    </edge>
    <edge id=":1736779781_0" function="internal">
        <lane id=":1736779781_0_0" index="0" disallow="tram rail_urban rail rail_electric ship" speed="8.94" length="4.68" shape="1187.21,3853.27 1186.17,3853.72 1185.50,3854.13 1184.95,3854.69 1184.27,3855.59"/>
        <lane id=":1736779781_0_1" index="1" disallow="tram rail_urban rail rail_electric ship" speed="10.66" length="4.68" shape="1187.21,3853.27 1181.68,3853.70"/>
    </edge>
    <edge id=":1736779784_0" function="internal">
        <lane id=":1736779784_0_0" index="0" disallow="tram rail_urban rail rail_electric ship" speed="13.89" length="10.68" shape="1099.42,3918.98 1100.88,3916.25 1101.97,3914.23 1103.34,3912.46 1105.62,3910.44"/>
    </edge>
    <edge id=":1736779784_1" function="internal">
        <lane id=":1736779784_1_0" index="0" disallow="tram rail_urban rail rail_electric ship" speed="13.89" length="13.21" shape="1104.24,3906.94 1101.68,3909.23 1099.76,3911.69 1098.04,3914.35 1096.09,3917.25"/>
    </edge>
    <edge id=":1736779825_0" function="internal">
        <lane id=":1736779825_0_0" index="0" disallow="tram rail_urban rail rail_electric ship" speed="7.56" length="11.99" shape="1446.70,4294.17 1444.42,4289.79 1442.51,4286.77 1440.95,4285.13 1439.76,4284.86"/>
    </edge>
    <edge id=":1736779825_1" function="internal">
        <lane id=":1736779825_1_0" index="0" disallow="tram rail_urban rail rail_electric ship" speed="7.25" length="10.05" shape="1446.70,4294.17 1445.40,4292.06 1443.03,4288.28 1441.48,4285.59"/>
    </edge>
    <edge id=":1736779825_7" function="internal">