<?xml version="1.0" encoding="UTF-8"?>

<!-- generated on Sat Feb 20 07:54:48 2021 by Eclipse SUMO jtrrouter Version v1_1_0+0000-2147d155b1
<configuration xmlns:xsi="http://www.w3.org/2001/XMLSchema-instance" xsi:noNamespaceSchemaLocation="http://sumo.dlr.de/xsd/jtrrouterConfiguration.xsd">

    <input>
        <net-file value="network_sa.net.xml"/>
        <additional-files value="vtype_sa.add.xml"/>
        <route-files value="flow_sa.add.xml"/>
        <turn-ratio-files value="turnRatios_sa.add.xml"/>
    </input>

    <output>
        <output-file value="routes_sa.rou.xml"/>
    </output>

    <processing>
        <no-internal-links value="true"/>
        <accept-all-destinations value="true"/>
        <allow-loops value="true"/>
    </processing>

</configuration>
-->

<routes xmlns:xsi="http://www.w3.org/2001/XMLSchema-instance" xsi:noNamespaceSchemaLocation="http://sumo.dlr.de/xsd/routes_file.xsd">
    <vType id="car" accel="2.9" decel="7.5" sigma="0.5" length="4.3" maxSpeed="50" minGap="2.5" speedDev="0.1"/>
    <vehicle id="flow0.0" type="car" depart="0.00" departLane="best" departPos="free" departSpeed="max">
        <route edges="e1 e2 e3 571873090#1 571873090#2 571873090#3 571873090#4 571873090#5"/>
    </vehicle>
    <vehicle id="flow1.0" type="car" depart="0.00" departLane="best" departPos="free" departSpeed="max">
        <route edges="right47_0 right46_0 right45_0 right44_0 right43 right42_0 right41_0 right40_0 right39_0 right38_0 right37_0 right36_0 right35 right34#1_0 top5_2 bot5_2 right33#1_0 right32_0 right31_0 right30_0 right29_0 right28_0 right27_0 right26_0 right25_0 right24_0 right23#1_0 top4_1 bot4_3 bot4_2 bot4_1 left32_0 left33_0 left34_0 left35_0 left36_0 left37_0 left38_0 left39_0 left40_0 left41_0 left42_0 left43_0 left44_0 left45_0 left46_0 left47_0 left48_0 left49_0 left50_0 left51_0 left52_0 top5_1 top5_2 bot5_2 bot5_1 bot5_0 bot5_-1 top5_-1 top5_0 top5_1 top5_2 bot5_2 bot5_1 bot5_0 bot5_-1 top5_-1 left53#1_0 left54_0 left55_0 left56_0 left57_0 left58_0 left59_0 left60_0 673263149#0"/>
    </vehicle>
    <vehicle id="flow0.1" type="car" depart="0.99" departLane="best" departPos="free" departSpeed="max">
        <route edges="e1 e2 e5 left0_0 left1_0 left2_0 left3_0 left4_0 left5_0 left6_0 left7_0 left8_0 left9_0 left10_0 left11_0 left12_0 left13#1_0 top1_1 top1_2 bot1_2 bot1_1 left13#2_0 left14_0 left15_0 left16_0 left17_0 left18_0 left19_0 left20_0 left21_0 left22_0 left23_0 left24_0 left25_0 left26_0 top3_1 bot3_1 right19_0 right18_0 right17_0 right16_0 right15_0 right14_0 right13_0 right12_0 right11_0 right10_0 right9_0 right8_0 right7_0 right6_0 right5_0 right4_0 right3_0 right2_0 e7 left1_0 left2_0 left3_0 left4_0 left5_0 left6_0 left7_0 left8_0 left9_0 left10_0 left11_0 left12_0 left13_0 left14_0 e20#1"/>
    </vehicle>
    <vehicle id="flow1.1" type="car" depart="0.99" departLane="best" departPos="free" departSpeed="max">
        <route edges="right47_0 right46_0 right45_0 right44_0 right43 right42_0 right41_0 right40_0 right39_0 right38_0 right37_0 right36_0 right35 right34_0 right33_0 right32_0 right31_0 right30_0 right29_0 right28_0 right27_0 right26_0 right25_0 right24_0 right23_0 bot4_0 bot4_-1 161721585 762416215"/>
    </vehicle>
    <vehicle id="flow0.2" type="car" depart="1.98" departLane="best" departPos="free" departSpeed="max">
        <route edges="e1 e2 e5 left0_0 left1_0 left2_0 left3_0 left4_0 left5_0 left6#1_0 top0_1 bot0_1 right7_0 right6_0 right5_0 right4_0 right3_0 right2_0 e7 left1_0 left2_0 left3_0 left4_0 left5_0 left6#1_0 top0_1 bot0_1 right7_0 right6_0 right5_0 right4_0 right3_0 right2_0 e7 left1_0 left2_0 left3_0 left4_0 e9#1 -757453633#0"/>
    </vehicle>
    <vehicle id="flow1.2" type="car" depart="1.98" departLane="best" departPos="free" departSpeed="max">
        <route edges="right47_0 right46_0 right45_0 right44_0 right43 right42_0 right41_0 right40_0 right39_0 right38_0 right37_0 right36_0 right35 right34#1_0 top5_2 bot5_2 right33#1_0 right32_0 right31_0 right30_0 right29_0 right28_0 right27_0 right26_0 right25_0 right24_0 right23_0 right22_0 right21_0 right20_0 right19_0 right18_0 right17_0 right16_0 right15_0 right14_0 right13_0 right12_0 right11_0 top1_1 top1_2 top1_3"/>
    </vehicle>
    <vehicle id="flow0.3" type="car" depart="2.97" departLane="best" departPos="free" departSpeed="max">
        <route edges="e1 e2 e5 left0_0 left1_0 left2_0 left3_0 left4_0 e9#1 757453633#1"/>
    </vehicle>
    <vehicle id="flow1.3" type="car" depart="2.97" departLane="best" departPos="free" departSpeed="max">
        <route edges="right47_0 right46_0 right45_0 right44_0 right43 right42_0 right41_0 right40_0 right39_0 right38_0 right37_0 right36_0 right35 right34#1_0 top5_2 bot5_2 bot5_1 left53_0 left54_0 left55_0 left56_0 left57_0 left58_0 left59_0 left60_0 673263149#0"/>
    </vehicle>
    <vehicle id="flow0.4" type="car" depart="3.96" departLane="best" departPos="free" departSpeed="max">
        <route edges="e1 e2 e5 left0_0 left1_0 left2_0 left3_0 left4_0 left5_0 left6#1_0 top0_1 bot0_1 right7_0 right6_0 right5_0 right4_0 right3_0 right2_0 e7 left1_0 left2_0 left3_0 left4_0 e9#1 -757453633#0"/>
    </vehicle>
    <vehicle id="flow1.4" type="car" depart="3.96" departLane="best" departPos="free" departSpeed="max">
        <route edges="right47_0 right46_0 right45_0 right44_0 right43 right42_0 right41_0 right40_0 right39_0 right38_0 right37_0 right36_0 right35 right34#1_0 top5_2 top5_3"/>
    </vehicle>
    <vehicle id="flow0.5" type="car" depart="4.95" departLane="best" departPos="free" departSpeed="max">
        <route edges="e1 e2 e5 left0_0 left1_0 left2_0 left3_0 left4_0 left5_0 left6#1_0 top0_1 bot0_1 right7_0 right6_0 right5_0 right4_0 right3_0 right2_0 e7 left1_0 left2_0 left3_0 left4_0 e9#1 757453633#1"/>
    </vehicle>
    <vehicle id="flow1.5" type="car" depart="4.95" departLane="best" departPos="free" departSpeed="max">
        <route edges="right47_0 right46_0 right45_0 right44_0 right43 right42_0 right41_0 right40_0 right39_0 right38_0 right37_0 right36_0 right35 right34_0 right33_0 right32_0 right31_0 right30_0 right29_0 right28_0 right27_0 right26_0 right25_0 right24_0 right23#1_0 top4_1 bot4_3 bot4_2 right22#1_0 right21_0 right20_0 right19_0 right18_0 right17_0 right16_0 right15_0 right14_0 bot2_0"/>
    </vehicle>
    <vehicle id="flow0.6" type="car" depart="5.94" departLane="best" departPos="free" departSpeed="max">
        <route edges="e1 e2 e5 left0_0 e6#2 e6#4 -261479194 261479193 left4_0 left5_0 left6_0 left7_0 left8_0 left9_0 left10_0 left11_0 left12_0 left13_0 left14_0 e20#1"/>
    </vehicle>
    <vehicle id="flow1.6" type="car" depart="5.94" departLane="best" departPos="free" departSpeed="max">
        <route edges="right47_0 right46_0 right45_0 right44_0 right43 right42_0 right41_0 right40_0 top6_1 top6_2"/>
    </vehicle>
    <vehicle id="flow0.7" type="car" depart="6.93" departLane="best" departPos="free" departSpeed="max">
        <route edges="e1 e2 e5 left0_0 left1_0 left2_0 left3_0 left4_0 left5_0 left6_0 left7_0 left8_0 left9_0 left10_0 left11_0 left12_0 left13_0 left14_0 left15_0 left16_0 left17_0 left18_0 left19_0 left20_0 left21_0 e26#1"/>
    </vehicle>
    <vehicle id="flow1.7" type="car" depart="6.93" departLane="best" departPos="free" departSpeed="max">
        <route edges="right47_0 right46_0 right45_0 right44_0 right43 right42_0 right41_0 right40_0 right39_0 right38_0 right37_0 right36_0 right35 right34#1_0 top5_2 bot5_2 bot5_1 left53_0 left54_0 left55_0 left56_0 left57_0 left58_0 left59_0 top6_1 top6_2"/>
    </vehicle>
    <vehicle id="flow0.8" type="car" depart="7.92" departLane="best" departPos="free" departSpeed="max">
        <route edges="e1 e2 e5 left0_0 left1_0 left2_0 left3_0 e8#1 -573421783 e6 e6#3"/>
    </vehicle>
    <vehicle id="flow1.8" type="car" depart="7.92" departLane="best" departPos="free" departSpeed="max">
        <route edges="right47_0 right46_0 right45_0 right44_0 right43 right42_0 right41_0 right40_0 right39_0 right38_0 right37_0 right36_0 right35 right34#1_0 top5_2 bot5_2 bot5_1 left53_0 left54_0 left55_0 left56_0 left57_0 left58_0 left59_0 left60_0 left61_0 644901606 644901605 644901607 -644901606 left62_0 left63_0 576564209 right44_0 right43 right42_0 right41_0 right40_0 right39_0 right38_0 right37_0 right36_0 right35 right34_0 bot5_0 bot5_-1 top5_-1 top5_0 right33_0 right32_0 right31_0 right30_0 right29_0 right28_0 right27_0 right26_0 right25_0 right24_0 right23_0 bot4_0 bot4_-1 bot4_-2 bot4_-3"/>
    </vehicle>
    <vehicle id="flow0.9" type="car" depart="8.91" departLane="best" departPos="free" departSpeed="max">
        <route edges="e1 e2 e5 left0_0 left1_0 left2_0 left3_0 left4_0 left5_0 left6_0 left7_0 left8_0 left9_0 left10_0 left11_0 left12_0 left13_0 left14_0 e20#1"/>
    </vehicle>
    <vehicle id="flow1.9" type="car" depart="8.91" departLane="best" departPos="free" departSpeed="max">
        <route edges="right47_0 right46_0 right45_0 right44_0 right43 right42_0 right41_0 right40_0 top6_1 top6_2"/>
    </vehicle>
    <vehicle id="flow0.10" type="car" depart="9.90" departLane="best" departPos="free" departSpeed="max">
        <route edges="e1 e2 e5 left0_0 left1_0 left2_0 left3_0 left4_0 left5_0 left6_0 left7_0 left8_0 left9_0 left10_0 left11_0 left12_0 left13_0 left14_0 e20#1"/>
    </vehicle>
    <vehicle id="flow1.10" type="car" depart="9.90" departLane="best" departPos="free" departSpeed="max">
        <route edges="right47_0 right46_0 right45_0 right44_0 right43 right42_0 right41_0 right40_0 right39_0 right38_0 right37_0 right36_0 right35 right34_0 bot5_0 bot5_-1 top5_-1 left53#1_0 left54_0 left55_0 left56_0 left57_0 left58_0 left59_0 left60_0 673263149#0"/>
    </vehicle>
    <vehicle id="flow0.11" type="car" depart="10.89" departLane="best" departPos="free" departSpeed="max">
        <route edges="e1 e2 e5 left0_0 left1_0 left2_0 left3_0 left4_0 left5_0 left6_0 left7_0 left8_0 left9_0 left10_0 left11_0 left12_0 left13_0 left14_0 left15_0 left16_0 left17_0 left18_0 left19_0 left20_0 left21_0 left22_0 left23_0 left24_0 left25_0 left26_0 left27_0 left28_0 left29_0 left30_0 left31_0 left32_0 left33_0 left34_0 left35_0 left36_0 left37_0 left38_0 left39_0 left40_0 left41_0 left42_0 left43_0 left44#1_0 e48#3 left45_0 left46_0 left47_0 left48_0 left49_0 left50_0 left51_0 left52_0 left53_0 left54_0 left55_0 e59#1"/>
    </vehicle>
    <vehicle id="flow1.11" type="car" depart="10.89" departLane="best" departPos="free" departSpeed="max">
        <route edges="right47_0 right46_0 right45_0 right44_0 right43 right42_0 right41_0 right40_0 right39_0 right38_0 right37_0 right36_0 right35 right34#1_0 top5_2 bot5_2 bot5_1 left53_0 left54_0 left55_0 left56_0 left57_0 left58_0 left59_0 top6_1 top6_2"/>
    </vehicle>
    <vehicle id="flow0.12" type="car" depart="11.88" departLane="best" departPos="free" departSpeed="max">
        <route edges="e1 e2 e5 left0_0 left1_0 left2_0 left3_0 left4_0 left5_0 left6_0 left7_0 left8_0 left9_0 left10_0 left11_0 left12_0 left13_0 left14_0 left15_0 left16_0 bot2_0"/>
    </vehicle>
    <vehicle id="flow1.12" type="car" depart="11.88" departLane="best" departPos="free" departSpeed="max">
        <route edges="right47_0 right46_0 right45_0 right44_0 right43 right42_0 right41_0 right40_0 top6_1 top6_2"/>
    </vehicle>
    <vehicle id="flow0.13" type="car" depart="12.87" departLane="best" departPos="free" departSpeed="max">
        <route edges="e1 e2 e5 left0_0 left1_0 left2_0 left3_0 left4_0 e9#1 -757453633#0"/>
    </vehicle>
    <vehicle id="flow1.13" type="car" depart="12.87" departLane="best" departPos="free" departSpeed="max">
        <route edges="right47_0 right46_0 right45_0 right44_0 right43 right42_0 right41_0 right40_0 top6_1 top6_2"/>
    </vehicle>
    <vehicle id="flow0.14" type="car" depart="13.86" departLane="best" departPos="free" departSpeed="max">
        <route edges="e1 e2 e3 571873090#1 571873090#2 571873090#3 571873090#4 571873090#5"/>
    </vehicle>
    <vehicle id="flow1.14" type="car" depart="13.86" departLane="best" departPos="free" departSpeed="max">
        <route edges="right47_0 right46_0 right45_0 right44_0 right43 right42_0 right41_0 right40_0 right39_0 right38_0 right37_0 right36_0 right35 right34#1_0 top5_2 bot5_2 bot5_1 left53_0 left54_0 left55_0 left56_0 left57_0 left58_0 left59_0 left60_0 673263149#0"/>
    </vehicle>
    <vehicle id="flow0.15" type="car" depart="14.85" departLane="best" departPos="free" departSpeed="max">
        <route edges="e1 e2 e3 571873090#1 571873090#2 571873090#3 571873090#4 571873090#5"/>
    </vehicle>
    <vehicle id="flow1.15" type="car" depart="14.85" departLane="best" departPos="free" departSpeed="max">
        <route edges="right47_0 right46_0 right45_0 right44_0 right43 right42_0 right41_0 right40_0 right39_0 right38_0 right37_0 right36_0 right35 right34_0 right33_0 right32_0 right31_0 right30_0 right29_0 right28_0 right27_0 right26_0 right25_0 right24_0 right23_0 bot4_0 bot4_-1 161721585 762416215"/>
    </vehicle>
    <vehicle id="flow0.16" type="car" depart="15.84" departLane="best" departPos="free" departSpeed="max">
        <route edges="e1 e2 e5 left0_0 left1_0 left2_0 left3_0 left4_0 left5_0 left6#1_0 top0_1 bot0_1 right7_0 right6_0 right5_0 right4_0 right3_0 right2_0 right1_0 right0_0 571873081 571873090#1 571873090#2 571873090#3 571873090#4 571873090#5"/>
    </vehicle>
    <vehicle id="flow1.16" type="car" depart="15.84" departLane="best" departPos="free" departSpeed="max">
        <route edges="right47_0 right46_0 right45_0 right44_0 right43 right42_0 right41_0 right40_0 right39_0 right38_0 right37_0 right36_0 right35 right34#1_0 top5_2 bot5_2 bot5_1 left53_0 left54_0 left55_0 e59#1"/>
    </vehicle>
    <vehicle id="flow0.17" type="car" depart="16.83" departLane="best" departPos="free" departSpeed="max">
        <route edges="e1 e2 e3 571873090#1 571873090#2 571873090#3 571873090#4 571873090#5"/>
    </vehicle>
    <vehicle id="flow1.17" type="car" depart="16.83" departLane="best" departPos="free" departSpeed="max">
        <route edges="right47_0 right46_0 right45_0 right44_0 right43 right42_0 right41_0 right40_0 right39_0 right38_0 right37_0 right36_0 right35 right34#1_0 top5_2 bot5_2 bot5_1 left53_0 left54_0 left55_0 left56_0 left57_0 left58_0 left59_0 top6_1 top6_2"/>
    </vehicle>
    <vehicle id="flow0.18" type="car" depart="17.82" departLane="best" departPos="free" departSpeed="max">
        <route edges="e1 e2 e5 left0_0 left1_0 left2_0 left3_0 left4_0 left5_0 left6_0 left7_0 left8_0 left9_0 left10_0 left11_0 left12_0 left13_0 left14_0 left15_0 left16_0 bot2_0"/>
    </vehicle>
    <vehicle id="flow1.18" type="car" depart="17.82" departLane="best" departPos="free" departSpeed="max">
        <route edges="right47_0 right46_0 right45_0 right44_0 right43 right42_0 right41_0 right40_0 right39_0 right38_0 right37_0 right36_0 right35 right34_0 right33_0 right32_0 right31_0 right30_0 right29_0 right28_0 right27_0 right26_0 right25_0 right24_0 right23_0 bot4_0 bot4_-1 161721585 762416215"/>
    </vehicle>
    <vehicle id="flow0.19" type="car" depart="18.81" departLane="best" departPos="free" departSpeed="max">
        <route edges="e1 e2 e5 left0_0 left1_0 left2_0 left3_0 left4_0 left5_0 left6#1_0 top0_1 bot0_1 left7_0 left8_0 left9_0 left10_0 left11_0 left12_0 left13_0 left14_0 left15_0 left16_0 bot2_0"/>
    </vehicle>
    <vehicle id="flow1.19" type="car" depart="18.81" departLane="best" departPos="free" departSpeed="max">
        <route edges="right47_0 right46_0 right45_0 right44_0 right43 right42_0 right41_0 right40_0 top6_1 top6_2"/>
    </vehicle>
    <vehicle id="flow0.20" type="car" depart="19.80" departLane="best" departPos="free" departSpeed="max">
        <route edges="e1 e2 e5 left0_0 left1_0 left2_0 left3_0 left4_0 left5_0 left6_0 left7_0 left8_0 left9_0 left10_0 left11_0 left12_0 left13_0 left14_0 e20#1"/>
    </vehicle>
    <vehicle id="flow1.20" type="car" depart="19.80" departLane="best" departPos="free" departSpeed="max">
        <route edges="right47_0 right46_0 right45_0 right44_0 right43 right42_0 right41_0 right40_0 right39_0 right38_0 right37_0 right36_0 right35 right34_0 bot5_0 bot5_-1 top5_-1 left53#1_0 left54_0 left55_0 e59#1"/>
    </vehicle>
    <vehicle id="flow0.21" type="car" depart="20.79" departLane="best" departPos="free" departSpeed="max">
        <route edges="e1 e2 e5 left0_0 left1_0 left2_0 left3_0 e8#1 -573421783 e6 e6#1 left2_0 left3_0 left4_0 left5_0 left6#1_0 top0_1 bot0_1 right7_0 right6_0 right5_0 right4_0 right3_0 right2_0 right1_0 right0_0 571873093 573421786#1 571873086#0 571873086#1"/>
    </vehicle>
    <vehicle id="flow1.21" type="car" depart="20.79" departLane="best" departPos="free" departSpeed="max">
        <route edges="right47_0 right46_0 right45_0 right44_0 right43 right42_0 right41_0 right40_0 top6_1 top6_2"/>
    </vehicle>
    <vehicle id="flow0.22" type="car" depart="21.78" departLane="best" departPos="free" departSpeed="max">
        <route edges="e1 e2 e5 left0_0 left1_0 left2_0 left3_0 left4_0 left5_0 left6_0 left7_0 left8_0 left9_0 left10_0 left11_0 left12_0 left13_0 left14_0 e20#1"/>
    </vehicle>
    <vehicle id="flow1.22" type="car" depart="21.78" departLane="best" departPos="free" departSpeed="max">
        <route edges="right47_0 right46_0 right45_0 right44_0 right43 right42_0 right41_0 right40_0 top6_1 top6_2"/>
    </vehicle>
    <vehicle id="flow0.23" type="car" depart="22.77" departLane="best" departPos="free" departSpeed="max">
        <route edges="e1 e2 e5 left0_0 left1_0 left2_0 left3_0 left4_0 left5_0 left6_0 left7_0 left8_0 left9_0 left10_0 left11_0 left12_0 left13_0 left14_0 left15_0 left16_0 left17_0 left18_0 left19_0 left20_0 left21_0 e26#1"/>
    </vehicle>
    <vehicle id="flow1.23" type="car" depart="22.77" departLane="best" departPos="free" departSpeed="max">
        <route edges="right47_0 right46_0 right45_0 right44_0 right43 right42_0 right41_0 right40_0 right39_0 right38_0 right37_0 right36_0 right35 right34_0 bot5_0 bot5_-1 top5_-1 left53#1_0 left54_0 left55_0 left56_0 left57_0 left58_0 left59_0 left60_0 673263149#0"/>
    </vehicle>
    <vehicle id="flow0.24" type="car" depart="23.76" departLane="best" departPos="free" departSpeed="max">
        <route edges="e1 e2 e5 left0_0 left1_0 left2_0 left3_0 left4_0 left5_0 left6#1_0 top0_1 bot0_1 right7_0 right6_0 right5_0 right4_0 right3_0 right2_0 e7 left1_0 left2_0 left3_0 left4_0 left5_0 left6_0 left7_0 left8_0 left9_0 left10_0 left11_0 left12_0 left13_0 left14_0 left15_0 left16_0 left17_0 left18_0 left19_0 left20_0 left21_0 e26#1"/>
    </vehicle>
    <vehicle id="flow1.24" type="car" depart="23.76" departLane="best" departPos="free" departSpeed="max">
        <route edges="right47_0 right46_0 right45_0 right44_0 right43 right42_0 right41_0 right40_0 right39_0 right38_0 right37_0 right36_0 right35 right34_0 bot5_0 bot5_-1 top5_-1 left53#1_0 left54_0 left55_0 left56_0 left57_0 left58_0 left59_0 top6_1 top6_2"/>
    </vehicle>
    <vehicle id="flow0.25" type="car" depart="24.75" departLane="best" departPos="free" departSpeed="max">
        <route edges="e1 e2 e5 left0_0 e6#2 e6#4 -261479194 261479193 left4_0 left5_0 left6_0 left7_0 left8_0 left9_0 left10_0 left11_0 left12_0 left13_0 left14_0 left15_0 left16_0 left17_0 left18_0 left19_0 left20_0 left21_0 left22_0 left23_0 left24_0 left25_0 left26_0 top3_1 bot3_1 left27_0 left28_0 left29_0 left30_0 left31_0 left32_0 left33_0 left34_0 left35_0 left36_0 left37#1_0 780217249 -780217248 780626764#0 -710705929#0 e39#2 573364615#1 780240601 top4_0 left32_0 left33_0 left34_0 left35_0 left36_0 left37#1_0 780217249 -780217248 780626764#0 -710705929#0 -780246087#2"/>
    </vehicle>
    <vehicle id="flow1.25" type="car" depart="24.75" departLane="best" departPos="free" departSpeed="max">
        <route edges="right47_0 right46_0 right45_0 right44_0 right43 right42_0 right41_0 right40_0 top6_1 top6_2"/>
    </vehicle>
    <vehicle id="flow0.26" type="car" depart="25.74" departLane="best" departPos="free" departSpeed="max">
        <route edges="e1 e2 e5 left0_0 e6#2 e6#4 -261479194 261479193 left4_0 e9#1 -757453633#0"/>
    </vehicle>
    <vehicle id="flow1.26" type="car" depart="25.74" departLane="best" departPos="free" departSpeed="max">
        <route edges="right47_0 right46_0 right45_0 right44_0 right43 right42_0 right41_0 right40_0 right39_0 right38_0 right37_0 right36_0 right35 right34_0 bot5_0 bot5_-1 top5_-1 top5_0 right33_0 right32_0 right31_0 right30_0 right29_0 right28_0 right27_0 right26_0 right25_0 right24_0 right23#1_0 top4_1 bot4_3 bot4_2 bot4_1 bot4_0 bot4_-1 161721585 762416215"/>
    </vehicle>
    <vehicle id="flow0.27" type="car" depart="26.73" departLane="best" departPos="free" departSpeed="max">
        <route edges="e1 e2 e5 left0_0 left1_0 left2_0 left3_0 e8#1 -573421783 e6 e6#1 left2_0 left3_0 e8#1 -573421783 e6 e6#3"/>
    </vehicle>
    <vehicle id="flow1.27" type="car" depart="26.73" departLane="best" departPos="free" departSpeed="max">
        <route edges="right47_0 right46_0 right45_0 right44_0 right43 right42_0 right41_0 right40_0 top6_1 top6_2"/>
    </vehicle>
    <vehicle id="flow0.28" type="car" depart="27.72" departLane="best" departPos="free" departSpeed="max">
        <route edges="e1 e2 e3 571873090#1 571873090#2 571873090#3 571873090#4 571873090#5"/>
    </vehicle>
    <vehicle id="flow1.28" type="car" depart="27.72" departLane="best" departPos="free" departSpeed="max">
        <route edges="right47_0 right46_0 right45_0 right44_0 right43 right42_0 right41_0 right40_0 right39_0 right38_0 right37_0 right36_0 right35 right34_0 right33_0 right32_0 right31_0 right30_0 right29_0 right28_0 right27_0 right26_0 right25_0 right24_0 right23_0 right22_0 right21_0 right20_0 right19_0 right18_0 right17_0 right16_0 right15_0 right14_0 right13_0 right12_0 right11_0 right10_0 right9_0 right8_0 right7_0 right6_0 right5_0 right4_0 right3_0 right2_0 e7 left1_0 left2_0 left3_0 left4_0 left5_0 left6#1_0 top0_1 bot0_1 left7_0 left8_0 left9_0 left10_0 left11_0 left12_0 left13#1_0 top1_1 top1_2 bot1_2 bot1_1 right10_0 right9_0 right8_0 right7_0 right6_0 right5_0 right4_0 right3_0 right2_0 e7 e6#2 e6#4 -261479194 261479193 left4_0 left5_0 left6_0 left7_0 left8_0 left9_0 left10_0 left11_0 left12_0 left13_0 left14_0 e20#1"/>
    </vehicle>
    <vehicle id="flow0.29" type="car" depart="28.71" departLane="best" departPos="free" departSpeed="max">
        <route edges="e1 e2 e5 left0_0 left1_0 left2_0 left3_0 left4_0 left5_0 left6_0 left7_0 left8_0 left9_0 left10_0 left11_0 left12_0 left13_0 left14_0 left15_0 left16_0 bot2_0"/>
    </vehicle>
    <vehicle id="flow1.29" type="car" depart="28.71" departLane="best" departPos="free" departSpeed="max">
        <route edges="right47_0 right46_0 right45_0 right44_0 right43 right42_0 right41_0 right40_0 right39_0 right38_0 right37_0 right36_0 right35 right34#1_0 top5_2 bot5_2 bot5_1 left53_0 left54_0 left55_0 left56_0 left57_0 left58_0 left59_0 left60_0 left61_0 644901606 644901605 644901607 -644901606 right43 right42_0 right41_0 right40_0 right39_0 right38_0 right37_0 right36_0 right35 right34#1_0 top5_2 bot5_2 bot5_1 left53_0 left54_0 left55_0 left56_0 left57_0 left58_0 left59_0 top6_1 top6_2"/>
    </vehicle>
    <vehicle id="flow0.30" type="car" depart="29.70" departLane="best" departPos="free" departSpeed="max">
        <route edges="e1 e2 e5 left0_0 left1_0 left2_0 left3_0 left4_0 e9#1 -757453633#0"/>
    </vehicle>
    <vehicle id="flow1.30" type="car" depart="29.70" departLane="best" departPos="free" departSpeed="max">
        <route edges="right47_0 right46_0 right45_0 right44_0 right43 right42_0 right41_0 right40_0 right39_0 right38_0 right37_0 right36_0 right35 right34_0 bot5_0 bot5_-1 top5_-1 left53#1_0 left54_0 left55_0 left56_0 left57_0 left58_0 left59_0 left60_0 673263149#0"/>
    </vehicle>
    <vehicle id="flow0.31" type="car" depart="30.69" departLane="best" departPos="free" departSpeed="max">
        <route edges="e1 e2 e5 left0_0 left1_0 left2_0 left3_0 left4_0 left5_0 left6#1_0 top0_1 bot0_1 left7_0 left8_0 left9_0 left10_0 left11_0 left12_0 left13_0 left14_0 left15_0 left16_0 bot2_0"/>
    </vehicle>
    <vehicle id="flow1.31" type="car" depart="30.69" departLane="best" departPos="free" departSpeed="max">
        <route edges="right47_0 right46_0 right45_0 right44_0 right43 right42_0 right41_0 right40_0 right39_0 right38_0 right37_0 right36_0 right35 right34_0 bot5_0 bot5_-1 top5_-1 left53#1_0 left54_0 left55_0 left56_0 left57_0 left58_0 left59_0 top6_1 top6_2"/>
    </vehicle>
    <vehicle id="flow0.32" type="car" depart="31.68" departLane="best" departPos="free" departSpeed="max">
        <route edges="e1 e2 e5 left0_0 left1_0 left2_0 left3_0 left4_0 left5_0 left6_0 left7_0 left8_0 left9_0 left10_0 left11_0 left12_0 left13_0 left14_0 left15_0 left16_0 left17_0 left18_0 left19_0 left20_0 left21_0 left22_0 left23_0 left24_0 left25_0 left26_0 left27_0 left28_0 left29_0 left30_0 left31#1_0 bot4_-1 bot4_-2 bot4_-3"/>
    </vehicle>
    <vehicle id="flow1.32" type="car" depart="31.68" departLane="best" departPos="free" departSpeed="max">
        <route edges="right47_0 right46_0 right45_0 right44_0 right43 right42_0 right41_0 right40_0 right39_0 right38_0 right37_0 right36_0 right35 right34_0 bot5_0 bot5_-1 top5_-1 top5_0 top5_1 top5_2 bot5_2 bot5_1 bot5_0 bot5_-1 top5_-1 top5_0 right33_0 right32_0 right31_0 right30_0 right29_0 right28_0 right27_0 right26_0 right25_0 right24_0 right23_0 right22_0 right21_0 right20_0 top3_1 bot3_1 right19_0 right18_0 right17_0 right16_0 right15_0 right14_0 right13_0 right12_0 right11_0 top1_1 top1_2 bot1_2 bot1_1 left13#2_0 left14_0 left15_0 left16_0 left17_0 left18_0 left19_0 left20_0 left21_0 left22_0 left23_0 left24_0 left25_0 left26_0 top3_1 bot3_1 left27_0 left28_0 left29_0 left30_0 left31_0 left32_0 left33_0 left34_0 left35_0 left36_0 left37#1_0 780217249 -780217248 780626764#0 -710705929#0 -780246087#2"/>
    </vehicle>
    <vehicle id="flow0.33" type="car" depart="32.67" departLane="best" departPos="free" departSpeed="max">
        <route edges="e1 e2 e5 left0_0 left1_0 left2_0 left3_0 left4_0 left5_0 left6_0 left7_0 left8_0 left9_0 left10_0 left11_0 left12_0 left13#1_0 top1_1 top1_2 top1_3"/>
    </vehicle>
    <vehicle id="flow1.33" type="car" depart="32.67" departLane="best" departPos="free" departSpeed="max">
        <route edges="right47_0 right46_0 right45_0 right44_0 right43 right42_0 right41_0 right40_0 right39_0 right38_0 right37_0 right36_0 right35 right34_0 bot5_0 bot5_-1 top5_-1 top5_0 right33_0 right32_0 right31_0 right30_0 right29_0 right28_0 right27_0 right26_0 right25_0 right24_0 right23#1_0 top4_1 bot4_3 bot4_2 bot4_1 left32_0 left33_0 left34_0 e39#1 -780246087#2"/>
    </vehicle>
    <vehicle id="flow0.34" type="car" depart="33.66" departLane="best" departPos="free" departSpeed="max">
        <route edges="e1 e2 e3 571873090#1 571873090#2 571873090#3 571873090#4 571873090#5"/>
    </vehicle>
    <vehicle id="flow1.34" type="car" depart="33.66" departLane="best" departPos="free" departSpeed="max">
        <route edges="right47_0 right46_0 right45_0 right44_0 right43 right42_0 right41_0 right40_0 top6_1 top6_2"/>
    </vehicle>
    <vehicle id="flow0.35" type="car" depart="34.65" departLane="best" departPos="free" departSpeed="max">
        <route edges="e1 e2 e5 left0_0 left1_0 left2_0 left3_0 left4_0 left5_0 left6_0 left7_0 left8_0 left9_0 left10_0 left11_0 left12_0 left13_0 left14_0 left15_0 left16_0 left17_0 left18_0 left19_0 left20_0 left21_0 e26#1"/>
    </vehicle>
    <vehicle id="flow1.35" type="car" depart="34.65" departLane="best" departPos="free" departSpeed="max">
        <route edges="right47_0 right46_0 right45_0 right44_0 right43 right42_0 right41_0 right40_0 right39_0 right38_0 right37_0 right36_0 right35 right34_0 right33_0 right32_0 right31_0 right30_0 right29_0 right28_0 right27_0 right26_0 right25_0 right24_0 right23_0 right22_0 right21_0 right20_0 right19_0 right18_0 right17_0 right16_0 right15_0 right14_0 right13_0 right12_0 right11_0 right10_0 right9_0 right8_0 right7_0 right6_0 right5_0 right4_0 right3_0 right2_0 e7 left1_0 left2_0 left3_0 left4_0 e9#1 -757453633#0"/>
    </vehicle>
    <vehicle id="flow0.36" type="car" depart="35.64" departLane="best" departPos="free" departSpeed="max">
        <route edges="e1 e2 e5 left0_0 left1_0 left2_0 left3_0 left4_0 left5_0 left6_0 left7_0 left8_0 left9_0 left10_0 left11_0 left12_0 left13#1_0 top1_1 top1_2 top1_3"/>
    </vehicle>
    <vehicle id="flow1.36" type="car" depart="35.64" departLane="best" departPos="free" departSpeed="max">
        <route edges="right47_0 right46_0 right45_0 right44_0 right43 right42_0 right41_0 right40_0 right39_0 right38_0 right37_0 right36_0 right35 right34_0 bot5_0 bot5_-1 top5_-1 top5_0 right33_0 right32_0 right31_0 right30_0 right29_0 right28_0 right27_0 right26_0 right25_0 right24_0 right23_0 bot4_0 bot4_-1 bot4_-2 bot4_-3"/>
    </vehicle>
    <vehicle id="flow0.37" type="car" depart="36.63" departLane="best" departPos="free" departSpeed="max">
        <route edges="e1 e2 e5 left0_0 left1_0 left2_0 left3_0 left4_0 left5_0 left6_0 left7_0 left8_0 left9_0 left10_0 left11_0 left12_0 left13_0 left14_0 e20#1"/>
    </vehicle>
    <vehicle id="flow1.37" type="car" depart="36.63" departLane="best" departPos="free" departSpeed="max">
        <route edges="right47_0 right46_0 right45_0 right44_0 right43 right42_0 right41_0 right40_0 right39_0 right38_0 right37_0 right36_0 right35 right34_0 bot5_0 bot5_-1 top5_-1 top5_0 right33_0 right32_0 right31_0 right30_0 right29_0 right28_0 right27_0 right26_0 right25_0 right24_0 right23#1_0 top4_1 top4_2"/>
    </vehicle>
    <vehicle id="flow0.38" type="car" depart="37.62" departLane="best" departPos="free" departSpeed="max">
        <route edges="e1 e2 e3 571873090#1 571873090#2 571873090#3 571873090#4 571873090#5"/>
    </vehicle>