<additional>
    <vTypeDistribution id="type1">
        <vType id="car" accel="2.9" decel="7.5" sigma="0.5" length="4.3" maxSpeed="50" minGap="2.5" speedDev="0.1"/>
        <flowdefs>
            <flow id="flow0" from="e1" begin="0" end="100" period="0.99" departLane="best" departPos="free" departSpeed="max" type="type1"/>
            <flow id="flow1" from="right47_0" begin="0" end="100" period="0.99" departLane="best" departPos="free" departSpeed="max" type="type1"/>
        </flowdefs>
    </vTypeDistribution>
</additional>
